tests/data/power_flow/vision-validation-network/input.json
{
  "version": "1.0",
  "type": "input",
  "is_batch": false,
  "attributes": {},
  "data": {
    "node": [
      {
        "id": 0,
        "u_rated": 10500.0,
        "id_reference": {
          "table": "Nodes",
          "key": {
            "Number": 1
          }
        },
        "Name": "Rail B"
      },
      {
        "id": 1,
        "u_rated": 10500.0,
        "id_reference": {
          "table": "Nodes",
          "key": {
            "Number": 2
          }
        },
        "Name": "KNP 1"
      },
      {
        "id": 2,
        "u_rated": 10500.0,
        "id_reference": {
          "table": "Nodes",
          "key": {
            "Number": 3
          }
        },
        "Name": "KNP 21"
      },
      {
        "id": 3,
        "u_rated": 10500.0,
        "id_reference": {
          "table": "Nodes",
          "key": {
            "Number": 4
          }
        },
        "Name": "KNP 11"
      },
      {
        "id": 4,
        "u_rated": 10500.0,
        "id_reference": {
          "table": "Nodes",
          "key": {
            "Number": 5
          }
        },
        "Name": "KNP 2"
      },
      {
        "id": 5,
        "u_rated": 10500.0,
        "id_reference": {
          "table": "Nodes",
          "key": {
            "Number": 6
          }
        },
        "Name": "KNP 3"
      },
      {
        "id": 6,
        "u_rated": 10500.0,
        "id_reference": {
          "table": "Nodes",
          "key": {
            "Number": 7
          }
        },
        "Name": "KNP 4"
      },
      {
        "id": 7,
        "u_rated": 10500.0,
        "id_reference": {
          "table": "Nodes",
          "key": {
            "Number": 8
          }
        },
        "Name": "KNP 5"
      },
      {
        "id": 8,
        "u_rated": 10500.0,
        "id_reference": {
          "table": "Nodes",
          "key": {
            "Number": 9
          }
        },
        "Name": "KNP 12"
      },
      {
        "id": 9,
        "u_rated": 10500.0,
        "id_reference": {
          "table": "Nodes",
          "key": {
            "Number": 10
          }
        },
        "Name": "KNP 13"
      },
      {
        "id": 10,
        "u_rated": 10500.0,
        "id_reference": {
          "table": "Nodes",
          "key": {
            "Number": 11
          }
        },
        "Name": "KNP 14"
      },
      {
        "id": 11,
        "u_rated": 10500.0,
        "id_reference": {
          "table": "Nodes",
          "key": {
            "Number": 12
          }
        },
        "Name": "KNP 15"
      },
      {
        "id": 12,
        "u_rated": 10500.0,
        "id_reference": {
          "table": "Nodes",
          "key": {
            "Number": 13
          }
        },
        "Name": "KNP 22"
      },
      {
        "id": 13,
        "u_rated": 10500.0,
        "id_reference": {
          "table": "Nodes",
          "key": {
            "Number": 14
          }
        },
        "Name": "KNP 23"
      },
      {
        "id": 14,
        "u_rated": 10500.0,
        "id_reference": {
          "table": "Nodes",
          "key": {
            "Number": 15
          }
        },
        "Name": "KNP 24"
      },
      {
        "id": 15,
        "u_rated": 10500.0,
        "id_reference": {
          "table": "Nodes",
          "key": {
            "Number": 16
          }
        },
        "Name": "KNP 25"
      },
      {
        "id": 16,
        "u_rated": 10500.0,
        "id_reference": {
          "table": "Nodes",
          "key": {
            "Number": 17
          }
        },
        "Name": "KNP 31"
      },
      {
        "id": 17,
        "u_rated": 10500.0,
        "id_reference": {
          "table": "Nodes",
          "key": {
            "Number": 18
          }
        },
        "Name": "KNP 32"
      },
      {
        "id": 18,
        "u_rated": 10500.0,
        "id_reference": {
          "table": "Nodes",
          "key": {
            "Number": 19
          }
        },
        "Name": "KNP 33"
      },
      {
        "id": 19,
        "u_rated": 10500.0,
        "id_reference": {
          "table": "Nodes",
          "key": {
            "Number": 20
          }
        },
        "Name": "KNP 34"
      },
      {
        "id": 20,
        "u_rated": 10500.0,
        "id_reference": {
          "table": "Nodes",
          "key": {
            "Number": 21
          }
        },
        "Name": "KNP 35"
      },
      {
        "id": 21,
        "u_rated": 10500.0,
        "id_reference": {
          "table": "Nodes",
          "key": {
            "Number": 30
          }
        },
        "Name": "KNP 5.1"
      },
      {
        "id": 22,
        "u_rated": 10500.0,
        "id_reference": {
          "table": "Nodes",
          "key": {
            "Number": 22
          }
        },
        "Name": "Rail A"
      },
      {
        "id": 23,
        "u_rated": 110000.0,
        "id_reference": {
          "table": "Nodes",
          "key": {
            "Number": 24
          }
        },
        "Name": "node_m1"
      },
      {
        "id": 24,
        "u_rated": 10500.0,
        "id_reference": {
          "table": "Nodes",
          "key": {
            "Number": 23
          }
        },
        "Name": "node1"
      },
      {
        "id": 25,
        "u_rated": 10500.0,
        "id_reference": {
          "table": "Nodes",
          "key": {
            "Number": 25
          }
        },
        "Name": "node2"
      },
      {
        "id": 26,
        "u_rated": 10500.0,
        "id_reference": {
          "table": "Nodes",
          "key": {
            "Number": 26
          }
        },
        "Name": "node3"
      },
      {
        "id": 27,
        "u_rated": 420.0,
        "id_reference": {
          "table": "Nodes",
          "key": {
            "Number": 27
          }
        },
        "Name": "KNP 1 (LS)"
      },
      {
        "id": 28,
        "u_rated": 420.0,
        "id_reference": {
          "table": "Nodes",
          "key": {
            "Number": 28
          }
        },
        "Name": "KNP 21 (LS)"
      },
      {
        "id": 29,
        "u_rated": 420.0,
        "id_reference": {
          "table": "Nodes",
          "key": {
            "Number": 29
          }
        },
        "Name": "KNP 11 (LS)"
      },
      {
        "id": 30,
        "u_rated": 420.0,
        "id_reference": {
          "table": "Nodes",
          "key": {
            "Number": 31
          }
        },
        "Name": "KNP 2 (LS)"
      },
      {
        "id": 31,
        "u_rated": 420.0,
        "id_reference": {
          "table": "Nodes",
          "key": {
            "Number": 32
          }
        },
        "Name": "KNP 3 (LS)"
      },
      {
        "id": 32,
        "u_rated": 420.0,
        "id_reference": {
          "table": "Nodes",
          "key": {
            "Number": 33
          }
        },
        "Name": "KNP 4 (LS)"
      },
      {
        "id": 33,
        "u_rated": 420.0,
        "id_reference": {
          "table": "Nodes",
          "key": {
            "Number": 34
          }
        },
        "Name": "KNP 12 (LS)"
      },
      {
        "id": 34,
        "u_rated": 420.0,
        "id_reference": {
          "table": "Nodes",
          "key": {
            "Number": 35
          }
        },
        "Name": "KNP 13 (LS)"
      },
      {
        "id": 35,
        "u_rated": 420.0,
        "id_reference": {
          "table": "Nodes",
          "key": {
            "Number": 36
          }
        },
        "Name": "KNP 14 (LS)"
      },
      {
        "id": 36,
        "u_rated": 420.0,
        "id_reference": {
          "table": "Nodes",
          "key": {
            "Number": 37
          }
        },
        "Name": "KNP 15 (LS)"
      },
      {
        "id": 37,
        "u_rated": 420.0,
        "id_reference": {
          "table": "Nodes",
          "key": {
            "Number": 38
          }
        },
        "Name": "KNP 22 (LS)"
      },
      {
        "id": 38,
        "u_rated": 420.0,
        "id_reference": {
          "table": "Nodes",
          "key": {
            "Number": 39
          }
        },
        "Name": "KNP 23 (LS)"
      },
      {
        "id": 39,
        "u_rated": 420.0,
        "id_reference": {
          "table": "Nodes",
          "key": {
            "Number": 40
          }
        },
        "Name": "KNP 24 (LS)"
      },
      {
        "id": 40,
        "u_rated": 420.0,
        "id_reference": {
          "table": "Nodes",
          "key": {
            "Number": 41
          }
        },
        "Name": "KNP 25 (LS)"
      },
      {
        "id": 41,
        "u_rated": 420.0,
        "id_reference": {
          "table": "Nodes",
          "key": {
            "Number": 42
          }
        },
        "Name": "KNP 31 (LS)"
      },
      {
        "id": 42,
        "u_rated": 420.0,
        "id_reference": {
          "table": "Nodes",
          "key": {
            "Number": 43
          }
        },
        "Name": "KNP 32 (LS)"
      },
      {
        "id": 43,
        "u_rated": 420.0,
        "id_reference": {
          "table": "Nodes",
          "key": {
            "Number": 44
          }
        },
        "Name": "KNP 33 (LS)"
      },
      {
        "id": 44,
        "u_rated": 420.0,
        "id_reference": {
          "table": "Nodes",
          "key": {
            "Number": 45
          }
        },
        "Name": "KNP 34 (LS)"
      },
      {
        "id": 45,
        "u_rated": 420.0,
        "id_reference": {
          "table": "Nodes",
          "key": {
            "Number": 46
          }
        },
        "Name": "KNP 35 (LS)"
      },
      {
        "id": 46,
        "u_rated": 420.0,
        "id_reference": {
          "table": "Nodes",
          "key": {
            "Number": 47
          }
        },
        "Name": "KNP 5.1 (LS)"
      }
    ],
    "line": [
      {
        "id": 47,
        "from_node": 0,
        "to_node": 1,
        "from_status": 1,
        "to_status": 1,
        "r1": 0.081,
        "x1": 0.044500000000000005,
        "c1": 2.25e-07,
        "tan1": 0.0004,
        "r0": 0.4075,
        "x0": 0.05,
        "c0": 2.25e-07,
        "tan0": 0.0,
        "i_n": 360.0,
        "id_reference": {
          "table": "Cables",
          "key": {
            "Number": 1
          }
        },
        "Name": "R1"
      },
      {
        "id": 48,
        "from_node": 0,
        "to_node": 2,
        "from_status": 1,
        "to_status": 1,
        "r1": 0.081,
        "x1": 0.044500000000000005,
        "c1": 2.25e-07,
        "tan1": 0.0004,
        "r0": 0.4075,
        "x0": 0.05,
        "c0": 2.25e-07,
        "tan0": 0.0,
        "i_n": 360.0,
        "id_reference": {
          "table": "Cables",
          "key": {
            "Number": 2
          }
        },
        "Name": "R21"
      },
      {
        "id": 49,
        "from_node": 0,
        "to_node": 3,
        "from_status": 1,
        "to_status": 1,
        "r1": 0.081,
        "x1": 0.044500000000000005,
        "c1": 2.25e-07,
        "tan1": 0.0004,
        "r0": 0.4075,
        "x0": 0.05,
        "c0": 2.25e-07,
        "tan0": 0.0,
        "i_n": 360.0,
        "id_reference": {
          "table": "Cables",
          "key": {
            "Number": 3
          }
        },
        "Name": "R11"
      },
      {
        "id": 50,
        "from_node": 1,
        "to_node": 4,
        "from_status": 1,
        "to_status": 1,
        "r1": 0.0324,
        "x1": 0.0178,
        "c1": 9e-08,
        "tan1": 0.0004,
        "r0": 0.163,
        "x0": 0.02,
        "c0": 9e-08,
        "tan0": 0.0,
        "i_n": 360.0,
        "id_reference": {
          "table": "Cables",
          "key": {
            "Number": 4
          }
        },
        "Name": "K12"
      },
      {
        "id": 51,
        "from_node": 4,
        "to_node": 5,
        "from_status": 1,
        "to_status": 1,
        "r1": 0.0324,
        "x1": 0.0178,
        "c1": 9e-08,
        "tan1": 0.0004,
        "r0": 0.163,
        "x0": 0.02,
        "c0": 9e-08,
        "tan0": 0.0,
        "i_n": 360.0,
        "id_reference": {
          "table": "Cables",
          "key": {
            "Number": 5
          }
        },
        "Name": "K23"
      },
      {
        "id": 52,
        "from_node": 5,
        "to_node": 6,
        "from_status": 1,
        "to_status": 1,
        "r1": 0.0324,
        "x1": 0.0178,
        "c1": 9e-08,
        "tan1": 0.0004,
        "r0": 0.163,
        "x0": 0.02,
        "c0": 9e-08,
        "tan0": 0.0,
        "i_n": 360.0,
        "id_reference": {
          "table": "Cables",
          "key": {
            "Number": 6
          }
        },
        "Name": "K34"
      },
      {
        "id": 53,
        "from_node": 6,
        "to_node": 7,
        "from_status": 1,
        "to_status": 1,
        "r1": 0.0324,
        "x1": 0.0178,
        "c1": 9e-08,
        "tan1": 0.0004,
        "r0": 0.163,
        "x0": 0.02,
        "c0": 9e-08,
        "tan0": 0.0,
        "i_n": 360.0,
        "id_reference": {
          "table": "Cables",
          "key": {
            "Number": 7
          }
        },
        "Name": "K35"
      },
      {
        "id": 54,
        "from_node": 3,
        "to_node": 8,
        "from_status": 1,
        "to_status": 1,
        "r1": 0.0324,
        "x1": 0.0178,
        "c1": 9e-08,
        "tan1": 0.0004,
        "r0": 0.163,
        "x0": 0.02,
        "c0": 9e-08,
        "tan0": 0.0,
        "i_n": 360.0,
        "id_reference": {
          "table": "Cables",
          "key": {
            "Number": 8
          }
        },
        "Name": "K1112"
      },
      {
        "id": 55,
        "from_node": 8,
        "to_node": 9,
        "from_status": 1,
        "to_status": 1,
        "r1": 0.0324,
        "x1": 0.0178,
        "c1": 9e-08,
        "tan1": 0.0004,
        "r0": 0.163,
        "x0": 0.02,
        "c0": 9e-08,
        "tan0": 0.0,
        "i_n": 360.0,
        "id_reference": {
          "table": "Cables",
          "key": {
            "Number": 9
          }
        },
        "Name": "K1213"
      },
      {
        "id": 56,
        "from_node": 9,
        "to_node": 10,
        "from_status": 1,
        "to_status": 1,
        "r1": 0.0324,
        "x1": 0.0178,
        "c1": 9e-08,
        "tan1": 0.0004,
        "r0": 0.163,
        "x0": 0.02,
        "c0": 9e-08,
        "tan0": 0.0,
        "i_n": 360.0,
        "id_reference": {
          "table": "Cables",
          "key": {
            "Number": 10
          }
        },
        "Name": "K1314"
      },
      {
        "id": 57,
        "from_node": 10,
        "to_node": 11,
        "from_status": 1,
        "to_status": 1,
        "r1": 0.0324,
        "x1": 0.0178,
        "c1": 9e-08,
        "tan1": 0.0004,
        "r0": 0.163,
        "x0": 0.02,
        "c0": 9e-08,
        "tan0": 0.0,
        "i_n": 360.0,
        "id_reference": {
          "table": "Cables",
          "key": {
            "Number": 11
          }
        },
        "Name": "K1415"
      },
      {
        "id": 58,
        "from_node": 2,
        "to_node": 12,
        "from_status": 1,
        "to_status": 1,
        "r1": 0.0324,
        "x1": 0.0178,
        "c1": 9e-08,
        "tan1": 0.0004,
        "r0": 0.163,
        "x0": 0.02,
        "c0": 9e-08,
        "tan0": 0.0,
        "i_n": 360.0,
        "id_reference": {
          "table": "Cables",
          "key": {
            "Number": 12
          }
        },
        "Name": "K2122"
      },
      {
        "id": 59,
        "from_node": 12,
        "to_node": 13,
        "from_status": 1,
        "to_status": 1,
        "r1": 0.0324,
        "x1": 0.0178,
        "c1": 9e-08,
        "tan1": 0.0004,
        "r0": 0.163,
        "x0": 0.02,
        "c0": 9e-08,
        "tan0": 0.0,
        "i_n": 360.0,
        "id_reference": {
          "table": "Cables",
          "key": {
            "Number": 13
          }
        },
        "Name": "K2223"
      },
      {
        "id": 60,
        "from_node": 13,
        "to_node": 14,
        "from_status": 1,
        "to_status": 1,
        "r1": 0.0324,
        "x1": 0.0178,
        "c1": 9e-08,
        "tan1": 0.0004,
        "r0": 0.163,
        "x0": 0.02,
        "c0": 9e-08,
        "tan0": 0.0,
        "i_n": 360.0,
        "id_reference": {
          "table": "Cables",
          "key": {
            "Number": 14
          }
        },
        "Name": "K2324"
      },
      {
        "id": 61,
        "from_node": 14,
        "to_node": 15,
        "from_status": 1,
        "to_status": 1,
        "r1": 0.0324,
        "x1": 0.0178,
        "c1": 9e-08,
        "tan1": 0.0004,
        "r0": 0.163,
        "x0": 0.02,
        "c0": 9e-08,
        "tan0": 0.0,
        "i_n": 360.0,
        "id_reference": {
          "table": "Cables",
          "key": {
            "Number": 15
          }
        },
        "Name": "K2425"
      },
      {
        "id": 62,
        "from_node": 0,
        "to_node": 16,
        "from_status": 1,
        "to_status": 1,
        "r1": 0.081,
        "x1": 0.044500000000000005,
        "c1": 2.25e-07,
        "tan1": 0.0004,
        "r0": 0.4075,
        "x0": 0.05,
        "c0": 2.25e-07,
        "tan0": 0.0,
        "i_n": 360.0,
        "id_reference": {
          "table": "Cables",
          "key": {
            "Number": 16
          }
        },
        "Name": "R31"
      },
      {
        "id": 63,
        "from_node": 16,
        "to_node": 17,
        "from_status": 1,
        "to_status": 1,
        "r1": 0.0324,
        "x1": 0.0178,
        "c1": 9e-08,
        "tan1": 0.0004,
        "r0": 0.163,
        "x0": 0.02,
        "c0": 9e-08,
        "tan0": 0.0,
        "i_n": 360.0,
        "id_reference": {
          "table": "Cables",
          "key": {
            "Number": 17
          }
        },
        "Name": "K3132"
      },
      {
        "id": 64,
        "from_node": 17,
        "to_node": 18,
        "from_status": 1,
        "to_status": 1,
        "r1": 0.19440000000000002,
        "x1": 0.1068,
        "c1": 5.4e-07,
        "tan1": 0.0004,
        "r0": 0.9779999999999999,
        "x0": 0.12,
        "c0": 5.4e-07,
        "tan0": 0.0,
        "i_n": 360.0,
        "id_reference": {
          "table": "Cables",
          "key": {
            "Number": 18
          }
        },
        "Name": "K3233"
      },
      {
        "id": 65,
        "from_node": 18,
        "to_node": 19,
        "from_status": 1,
        "to_status": 1,
        "r1": 0.0324,
        "x1": 0.0178,
        "c1": 9e-08,
        "tan1": 0.0004,
        "r0": 0.163,
        "x0": 0.02,
        "c0": 9e-08,
        "tan0": 0.0,
        "i_n": 360.0,
        "id_reference": {
          "table": "Cables",
          "key": {
            "Number": 19
          }
        },
        "Name": "K3334"
      },
      {
        "id": 66,
        "from_node": 19,
        "to_node": 20,
        "from_status": 1,
        "to_status": 1,
        "r1": 0.0324,
        "x1": 0.0178,
        "c1": 9e-08,
        "tan1": 0.0004,
        "r0": 0.163,
        "x0": 0.02,
        "c0": 9e-08,
        "tan0": 0.0,
        "i_n": 360.0,
        "id_reference": {
          "table": "Cables",
          "key": {
            "Number": 20
          }
        },
        "Name": "K3435"
      },
      {
        "id": 67,
        "from_node": 15,
        "to_node": 20,
        "from_status": 0,
        "to_status": 1,
        "r1": 0.0324,
        "x1": 0.0178,
        "c1": 9e-08,
        "tan1": 0.0004,
        "r0": 0.163,
        "x0": 0.02,
        "c0": 9e-08,
        "tan0": 0.0,
        "i_n": 360.0,
        "id_reference": {
          "table": "Cables",
          "key": {
            "Number": 21
          }
        },
        "Name": "K2535"
      },
      {
        "id": 68,
        "from_node": 11,
        "to_node": 15,
        "from_status": 1,
        "to_status": 0,
        "r1": 0.324,
        "x1": 0.17800000000000002,
        "c1": 9e-07,
        "tan1": 0.0004,
        "r0": 1.63,
        "x0": 0.2,
        "c0": 9e-07,
        "tan0": 0.0,
        "i_n": 360.0,
        "id_reference": {
          "table": "Cables",
          "key": {
            "Number": 22
          }
        },
        "Name": "K1525"
      },
      {
        "id": 69,
        "from_node": 5,
        "to_node": 9,
        "from_status": 1,
        "to_status": 0,
        "r1": 0.0324,
        "x1": 0.0178,
        "c1": 9e-08,
        "tan1": 0.0004,
        "r0": 0.163,
        "x0": 0.02,
        "c0": 9e-08,
        "tan0": 0.0,
        "i_n": 360.0,
        "id_reference": {
          "table": "Cables",
          "key": {
            "Number": 23
          }
        },
        "Name": "K313"
      },
      {
        "id": 70,
        "from_node": 7,
        "to_node": 11,
        "from_status": 1,
        "to_status": 0,
        "r1": 0.0324,
        "x1": 0.0178,
        "c1": 9e-08,
        "tan1": 0.0004,
        "r0": 0.163,
        "x0": 0.02,
        "c0": 9e-08,
        "tan0": 0.0,
        "i_n": 360.0,
        "id_reference": {
          "table": "Cables",
          "key": {
            "Number": 24
          }
        },
        "Name": "K515"
      },
      {
        "id": 71,
        "from_node": 9,
        "to_node": 13,
        "from_status": 1,
        "to_status": 0,
        "r1": 0.0324,
        "x1": 0.0178,
        "c1": 9e-08,
        "tan1": 0.0004,
        "r0": 0.163,
        "x0": 0.02,
        "c0": 9e-08,
        "tan0": 0.0,
        "i_n": 360.0,
        "id_reference": {
          "table": "Cables",
          "key": {
            "Number": 25
          }
        },
        "Name": "K1323"
      },
      {
        "id": 72,
        "from_node": 13,
        "to_node": 18,
        "from_status": 0,
        "to_status": 1,
        "r1": 0.0324,
        "x1": 0.0178,
        "c1": 9e-08,
        "tan1": 0.0004,
        "r0": 0.163,
        "x0": 0.02,
        "c0": 9e-08,
        "tan0": 0.0,
        "i_n": 360.0,
        "id_reference": {
          "table": "Cables",
          "key": {
            "Number": 26
          }
        },
        "Name": "K2333"
      },
      {
        "id": 73,
        "from_node": 0,
        "to_node": 24,
        "from_status": 1,
        "to_status": 1,
        "r1": 0.1,
        "x1": 0.1,
        "c1": 2e-07,
        "tan1": 0.0004,
        "r0": 0.1,
        "x0": 0.1,
        "c0": 2e-07,
        "tan0": 0.0,
        "i_n": 1000.0,
        "id_reference": {
          "table": "Lines",
          "key": {
            "Number": 1
          }
        },
        "Name": "line1"
      },
      {
        "id": 76,
        "from_node": 24,
        "to_node": 25,
        "from_status": 1,
        "to_status": 1,
        "r1": 0.1,
        "x1": 0.5,
        "c1": 0.0,
        "tan1": 0.0004,
        "r0": 0.1,
        "x0": 0.5,
        "c0": 0.0,
        "tan0": 0.0,
        "i_n": 1000.0,
        "id_reference": {
          "table": "Reactance coils",
          "key": {
            "Number": 1
          }
        },
        "Name": "reactance1"
      }
    ],
    "link": [
      {
        "id": 74,
        "from_node": 7,
        "to_node": 21,
        "from_status": 1,
        "to_status": 1,
        "id_reference": {
          "table": "Links",
          "key": {
            "Number": 4
          }
        },
        "Name": "55.1"
      },
      {
        "id": 75,
        "from_node": 0,
        "to_node": 22,
        "from_status": 1,
        "to_status": 1,
        "id_reference": {
          "table": "Links",
          "key": {
            "Number": 1
          }
        },
        "Name": "Dwarskoppelveld :)"
      }
    ],
    "transformer": [
      {
        "id": 77,
        "from_node": 23,
        "to_node": 22,
        "from_status": 1,
        "to_status": 1,
        "u1": 110000.0,
        "u2": 10500.0,
        "sn": 44000000.0,
        "uk": 0.134,
        "pk": 10000.0,
        "i0": 0.010002593413710266,
        "p0": 2000.0,
        "winding_from": 1,
        "winding_to": 2,
        "clock": 1,
        "tap_side": 0,
        "tap_pos": -3,
        "tap_min": -12,
        "tap_max": 12,
        "tap_nom": 0,
        "tap_size": 1320.0,
        "uk_min": 0.134,
        "uk_max": 0.134,
        "pk_min": 10000.0,
        "pk_max": 10000.0,
        "r_grounding_from": 0.0,
        "x_grounding_from": 0.0,
        "id_reference": {
          "table": "Transformers",
          "key": {
            "Number": 2
          }
        },
        "Name": "trafo1"
      },
      {
        "id": 78,
        "from_node": 1,
        "to_node": 27,
        "from_status": 1,
        "to_status": 1,
        "u1": 10750.0,
        "u2": 420.0,
        "sn": 1000000.0,
        "uk": 0.2,
        "pk": 0.0,
        "i0": 0.0,
        "p0": 0.0,
        "winding_from": 2,
        "winding_to": 1,
        "clock": 5,
        "tap_side": 0,
        "tap_pos": 3,
        "tap_min": 5,
        "tap_max": 1,
        "tap_nom": 3,
        "tap_size": 250.0,
        "uk_min": 0.2,
        "uk_max": 0.2,
        "pk_min": 0.0,
        "pk_max": 0.0,
        "r_grounding_to": 0.0,
        "x_grounding_to": 0.0,
        "id_reference": {
          "table": "Transformers",
          "key": {
            "Number": 1
          }
        }
      },
      {
        "id": 79,
        "from_node": 2,
        "to_node": 28,
        "from_status": 1,
        "to_status": 1,
        "u1": 10750.0,
        "u2": 420.0,
        "sn": 1000000.0,
        "uk": 0.06,
        "pk": 8800.0,
        "i0": 0.00097,
        "p0": 970.0,
        "winding_from": 2,
        "winding_to": 1,
        "clock": 5,
        "tap_side": 0,
        "tap_pos": 3,
        "tap_min": 5,
        "tap_max": 1,
        "tap_nom": 3,
        "tap_size": 250.0,
        "uk_min": 0.06,
        "uk_max": 0.06,
        "pk_min": 8800.0,
        "pk_max": 8800.0,
        "r_grounding_to": 0.0,
        "x_grounding_to": 0.0,
        "id_reference": {
          "table": "Transformers",
          "key": {
            "Number": 3
          }
        }
      },
      {
        "id": 80,
        "from_node": 3,
        "to_node": 29,
        "from_status": 1,
        "to_status": 1,
        "u1": 10750.0,
        "u2": 420.0,
        "sn": 160000.0,
        "uk": 0.04,
        "pk": 1905.0,
        "i0": 0.001625,
        "p0": 260.0,
        "winding_from": 2,
        "winding_to": 1,
        "clock": 5,
        "tap_side": 0,
        "tap_pos": 3,
        "tap_min": 5,
        "tap_max": 1,
        "tap_nom": 3,
        "tap_size": 250.0,
        "uk_min": 0.04,
        "uk_max": 0.04,
        "pk_min": 1905.0,
        "pk_max": 1905.0,
        "r_grounding_to": 0.0,
        "x_grounding_to": 0.0,
        "id_reference": {
          "table": "Transformers",
          "key": {
            "Number": 4
          }
        }
      },
      {
        "id": 81,
        "from_node": 4,
        "to_node": 30,
        "from_status": 1,
        "to_status": 1,
        "u1": 10750.0,
        "u2": 420.0,
        "sn": 1000000.0,
        "uk": 0.06,
        "pk": 8800.0,
        "i0": 0.00097,
        "p0": 970.0,
        "winding_from": 2,
        "winding_to": 1,
        "clock": 5,
        "tap_side": 0,
        "tap_pos": 3,
        "tap_min": 5,
        "tap_max": 1,
        "tap_nom": 3,
        "tap_size": 250.0,
        "uk_min": 0.06,
        "uk_max": 0.06,
        "pk_min": 8800.0,
        "pk_max": 8800.0,
        "r_grounding_to": 0.0,
        "x_grounding_to": 0.0,
        "id_reference": {
          "table": "Transformers",
          "key": {
            "Number": 5
          }
        }
      },
      {
        "id": 82,
        "from_node": 5,
        "to_node": 31,
        "from_status": 1,
        "to_status": 1,
        "u1": 10750.0,
        "u2": 420.0,
        "sn": 1000000.0,
        "uk": 0.06,
        "pk": 8800.0,
        "i0": 0.00097,
        "p0": 970.0,
        "winding_from": 2,
        "winding_to": 1,
        "clock": 5,
        "tap_side": 0,
        "tap_pos": 3,
        "tap_min": 5,
        "tap_max": 1,
        "tap_nom": 3,
        "tap_size": 250.0,
        "uk_min": 0.06,
        "uk_max": 0.06,
        "pk_min": 8800.0,
        "pk_max": 8800.0,
        "r_grounding_to": 0.0,
        "x_grounding_to": 0.0,
        "id_reference": {
          "table": "Transformers",
          "key": {
            "Number": 6
          }
        }
      },
      {
        "id": 83,
        "from_node": 6,
        "to_node": 32,
        "from_status": 1,
        "to_status": 1,
        "u1": 10750.0,
        "u2": 420.0,
        "sn": 1000000.0,
        "uk": 0.06,
        "pk": 8800.0,
        "i0": 0.00097,
        "p0": 970.0,
        "winding_from": 2,
        "winding_to": 1,
        "clock": 5,
        "tap_side": 0,
        "tap_pos": 3,
        "tap_min": 5,
        "tap_max": 1,
        "tap_nom": 3,
        "tap_size": 250.0,
        "uk_min": 0.06,
        "uk_max": 0.06,
        "pk_min": 8800.0,
        "pk_max": 8800.0,
        "r_grounding_to": 0.0,
        "x_grounding_to": 0.0,
        "id_reference": {
          "table": "Transformers",
          "key": {
            "Number": 7
          }
        }
      },
      {
        "id": 84,
        "from_node": 8,
        "to_node": 33,
        "from_status": 1,
        "to_status": 1,
        "u1": 10750.0,
        "u2": 420.0,
        "sn": 1600000.0,
        "uk": 0.06,
        "pk": 12900.0,
        "i0": 0.000875,
        "p0": 1400.0,
        "winding_from": 2,
        "winding_to": 1,
        "clock": 5,
        "tap_side": 0,
        "tap_pos": 3,
        "tap_min": 5,
        "tap_max": 1,
        "tap_nom": 3,
        "tap_size": 250.0,
        "uk_min": 0.06,
        "uk_max": 0.06,
        "pk_min": 12900.0,
        "pk_max": 12900.0,
        "r_grounding_to": 0.0,
        "x_grounding_to": 0.0,
        "id_reference": {
          "table": "Transformers",
          "key": {
            "Number": 8
          }
        }
      },
      {
        "id": 85,
        "from_node": 9,
        "to_node": 34,
        "from_status": 1,
        "to_status": 1,
        "u1": 10750.0,
        "u2": 420.0,
        "sn": 1000000.0,
        "uk": 0.06,
        "pk": 8800.0,
        "i0": 0.00097,
        "p0": 970.0,
        "winding_from": 2,
        "winding_to": 1,
        "clock": 5,
        "tap_side": 0,
        "tap_pos": 3,
        "tap_min": 5,
        "tap_max": 1,
        "tap_nom": 3,
        "tap_size": 250.0,
        "uk_min": 0.06,
        "uk_max": 0.06,
        "pk_min": 8800.0,
        "pk_max": 8800.0,
        "r_grounding_to": 0.0,
        "x_grounding_to": 0.0,
        "id_reference": {
          "table": "Transformers",
          "key": {
            "Number": 9
          }
        }
      },
      {
        "id": 86,
        "from_node": 10,
        "to_node": 35,
        "from_status": 1,
        "to_status": 1,
        "u1": 10750.0,
        "u2": 420.0,
        "sn": 1000000.0,
        "uk": 0.06,
        "pk": 8800.0,
        "i0": 0.00097,
        "p0": 970.0,
        "winding_from": 2,
        "winding_to": 1,
        "clock": 5,
        "tap_side": 0,
        "tap_pos": 3,
        "tap_min": 5,
        "tap_max": 1,
        "tap_nom": 3,
        "tap_size": 250.0,
        "uk_min": 0.06,
        "uk_max": 0.06,
        "pk_min": 8800.0,
        "pk_max": 8800.0,
        "r_grounding_to": 0.0,
        "x_grounding_to": 0.0,
        "id_reference": {
          "table": "Transformers",
          "key": {
            "Number": 10
          }
        }
      },
      {
        "id": 87,
        "from_node": 11,
        "to_node": 36,
        "from_status": 1,
        "to_status": 1,
        "u1": 10750.0,
        "u2": 420.0,
        "sn": 160000.0,
        "uk": 0.04,
        "pk": 1905.0,
        "i0": 0.001625,
        "p0": 260.0,
        "winding_from": 2,
        "winding_to": 1,
        "clock": 5,
        "tap_side": 0,
        "tap_pos": 3,
        "tap_min": 5,
        "tap_max": 1,
        "tap_nom": 3,
        "tap_size": 250.0,
        "uk_min": 0.04,
        "uk_max": 0.04,
        "pk_min": 1905.0,
        "pk_max": 1905.0,
        "r_grounding_to": 0.0,
        "x_grounding_to": 0.0,
        "id_reference": {
          "table": "Transformers",
          "key": {
            "Number": 11
          }
        }
      },
      {
        "id": 88,
        "from_node": 12,
        "to_node": 37,
        "from_status": 1,
        "to_status": 1,
        "u1": 10750.0,
        "u2": 420.0,
        "sn": 2500000.0,
        "uk": 0.06,
        "pk": 20000.0,
        "i0": 0.00086,
        "p0": 2150.0,
        "winding_from": 2,
        "winding_to": 1,
        "clock": 5,
        "tap_side": 0,
        "tap_pos": 3,
        "tap_min": 5,
        "tap_max": 1,
        "tap_nom": 3,
        "tap_size": 250.0,
        "uk_min": 0.06,
        "uk_max": 0.06,
        "pk_min": 20000.0,
        "pk_max": 20000.0,
        "r_grounding_to": 0.0,
        "x_grounding_to": 0.0,
        "id_reference": {
          "table": "Transformers",
          "key": {
            "Number": 12
          }
        }
      },
      {
        "id": 89,
        "from_node": 13,
        "to_node": 38,
        "from_status": 1,
        "to_status": 1,
        "u1": 10750.0,
        "u2": 420.0,
        "sn": 160000.0,
        "uk": 0.04,
        "pk": 1905.0,
        "i0": 0.001625,
        "p0": 260.0,
        "winding_from": 2,
        "winding_to": 1,
        "clock": 5,
        "tap_side": 0,
        "tap_pos": 3,
        "tap_min": 5,
        "tap_max": 1,
        "tap_nom": 3,
        "tap_size": 250.0,
        "uk_min": 0.04,
        "uk_max": 0.04,
        "pk_min": 1905.0,
        "pk_max": 1905.0,
        "r_grounding_to": 0.0,
        "x_grounding_to": 0.0,
        "id_reference": {
          "table": "Transformers",
          "key": {
            "Number": 13
          }
        }
      },
      {
        "id": 90,
        "from_node": 14,
        "to_node": 39,
        "from_status": 1,
        "to_status": 1,
        "u1": 10750.0,
        "u2": 420.0,
        "sn": 1000000.0,
        "uk": 0.06,
        "pk": 8800.0,
        "i0": 0.00097,
        "p0": 970.0,
        "winding_from": 2,
        "winding_to": 1,
        "clock": 5,
        "tap_side": 0,
        "tap_pos": 3,
        "tap_min": 5,
        "tap_max": 1,
        "tap_nom": 3,
        "tap_size": 250.0,
        "uk_min": 0.06,
        "uk_max": 0.06,
        "pk_min": 8800.0,
        "pk_max": 8800.0,
        "r_grounding_to": 0.0,
        "x_grounding_to": 0.0,
        "id_reference": {
          "table": "Transformers",
          "key": {
            "Number": 14
          }
        }
      },
      {
        "id": 91,
        "from_node": 15,
        "to_node": 40,
        "from_status": 1,
        "to_status": 1,
        "u1": 10750.0,
        "u2": 420.0,
        "sn": 1000000.0,
        "uk": 0.06,
        "pk": 8800.0,
        "i0": 0.00097,
        "p0": 970.0,
        "winding_from": 2,
        "winding_to": 1,
        "clock": 5,
        "tap_side": 0,
        "tap_pos": 3,
        "tap_min": 5,
        "tap_max": 1,
        "tap_nom": 3,
        "tap_size": 250.0,
        "uk_min": 0.06,
        "uk_max": 0.06,
        "pk_min": 8800.0,
        "pk_max": 8800.0,
        "r_grounding_to": 0.0,
        "x_grounding_to": 0.0,
        "id_reference": {
          "table": "Transformers",
          "key": {
            "Number": 15
          }
        }
      },
      {
        "id": 92,
        "from_node": 16,
        "to_node": 41,
        "from_status": 1,
        "to_status": 1,
        "u1": 10750.0,
        "u2": 420.0,
        "sn": 160000.0,
        "uk": 0.04,
        "pk": 1905.0,
        "i0": 0.001625,
        "p0": 260.0,
        "winding_from": 2,
        "winding_to": 1,
        "clock": 5,
        "tap_side": 0,
        "tap_pos": 3,
        "tap_min": 5,
        "tap_max": 1,
        "tap_nom": 3,
        "tap_size": 250.0,
        "uk_min": 0.04,
        "uk_max": 0.04,
        "pk_min": 1905.0,
        "pk_max": 1905.0,
        "r_grounding_to": 0.0,
        "x_grounding_to": 0.0,
        "id_reference": {
          "table": "Transformers",
          "key": {
            "Number": 16
          }
        }
      },
      {
        "id": 93,
        "from_node": 17,
        "to_node": 42,
        "from_status": 1,
        "to_status": 1,
        "u1": 10750.0,
        "u2": 420.0,
        "sn": 160000.0,
        "uk": 0.04,
        "pk": 1905.0,
        "i0": 0.001625,
        "p0": 260.0,
        "winding_from": 2,
        "winding_to": 1,
        "clock": 5,
        "tap_side": 0,
        "tap_pos": 3,
        "tap_min": 5,
        "tap_max": 1,
        "tap_nom": 3,
        "tap_size": 250.0,
        "uk_min": 0.04,
        "uk_max": 0.04,
        "pk_min": 1905.0,
        "pk_max": 1905.0,
        "r_grounding_to": 0.0,
        "x_grounding_to": 0.0,
        "id_reference": {
          "table": "Transformers",
          "key": {
            "Number": 17
          }
        }
      },
      {
        "id": 94,
        "from_node": 18,
        "to_node": 43,
        "from_status": 1,
        "to_status": 1,
        "u1": 10750.0,
        "u2": 420.0,
        "sn": 160000.0,
        "uk": 0.04,
        "pk": 1905.0,
        "i0": 0.001625,
        "p0": 260.0,
        "winding_from": 2,
        "winding_to": 1,
        "clock": 5,
        "tap_side": 0,
        "tap_pos": 3,
        "tap_min": 5,
        "tap_max": 1,
        "tap_nom": 3,
        "tap_size": 250.0,
        "uk_min": 0.04,
        "uk_max": 0.04,
        "pk_min": 1905.0,
        "pk_max": 1905.0,
        "r_grounding_to": 0.0,
        "x_grounding_to": 0.0,
        "id_reference": {
          "table": "Transformers",
          "key": {
            "Number": 18
          }
        }
      },
      {
        "id": 95,
        "from_node": 19,
        "to_node": 44,
        "from_status": 1,
        "to_status": 1,
        "u1": 10750.0,
        "u2": 420.0,
        "sn": 160000.0,
        "uk": 0.04,
        "pk": 1905.0,
        "i0": 0.001625,
        "p0": 260.0,
        "winding_from": 2,
        "winding_to": 1,
        "clock": 5,
        "tap_side": 0,
        "tap_pos": 3,
        "tap_min": 5,
        "tap_max": 1,
        "tap_nom": 3,
        "tap_size": 250.0,
        "uk_min": 0.04,
        "uk_max": 0.04,
        "pk_min": 1905.0,
        "pk_max": 1905.0,
        "r_grounding_to": 0.0,
        "x_grounding_to": 0.0,
        "id_reference": {
          "table": "Transformers",
          "key": {
            "Number": 19
          }
        }
      },
      {
        "id": 96,
        "from_node": 20,
        "to_node": 45,
        "from_status": 1,
        "to_status": 1,
        "u1": 10750.0,
        "u2": 420.0,
        "sn": 160000.0,
        "uk": 0.04,
        "pk": 1905.0,
        "i0": 0.001625,
        "p0": 260.0,
        "winding_from": 2,
        "winding_to": 1,
        "clock": 5,
        "tap_side": 0,
        "tap_pos": 3,
        "tap_min": 5,
        "tap_max": 1,
        "tap_nom": 3,
        "tap_size": 250.0,
        "uk_min": 0.04,
        "uk_max": 0.04,
        "pk_min": 1905.0,
        "pk_max": 1905.0,
        "r_grounding_to": 0.0,
        "x_grounding_to": 0.0,
        "id_reference": {
          "table": "Transformers",
          "key": {
            "Number": 20
          }
        }
      },
      {
        "id": 97,
        "from_node": 21,
        "to_node": 46,
        "from_status": 1,
        "to_status": 1,
        "u1": 10750.0,
        "u2": 420.0,
        "sn": 2500000.0,
        "uk": 0.06,
        "pk": 20000.0,
        "i0": 0.00086,
        "p0": 2150.0,
        "winding_from": 2,
        "winding_to": 1,
        "clock": 5,
        "tap_side": 0,
        "tap_pos": 3,
        "tap_min": 5,
        "tap_max": 1,
        "tap_nom": 3,
        "tap_size": 250.0,
        "uk_min": 0.06,
        "uk_max": 0.06,
        "pk_min": 20000.0,
        "pk_max": 20000.0,
        "r_grounding_to": 0.0,
        "x_grounding_to": 0.0,
        "id_reference": {
          "table": "Transformers",
          "key": {
            "Number": 21
          }
        }
      },
      {
        "id": 98,
        "from_node": 25,
        "to_node": 26,
        "from_status": 1,
        "to_status": 1,
        "u1": 10500.0,
        "u2": 10500.0,
        "sn": 20000000.0,
        "uk": 0.05,
        "pk": 9000.0,
        "i0": 0.0009093266739736605,
        "p0": 1000.0,
        "winding_from": 0,
        "winding_to": 0,
        "clock": 0,
        "tap_side": 0,
        "tap_pos": 0,
        "tap_min": -12,
        "tap_max": 12,
        "tap_nom": 0,
        "tap_size": 500.0,
        "uk_min": 0.04,
        "uk_max": 0.06,
        "pk_min": 8000.0,
        "pk_max": 10000.0,
        "r_grounding_from": 0.0,
        "x_grounding_from": 0.0,
        "r_grounding_to": 0.0,
        "x_grounding_to": 0.0,
        "id_reference": {
          "table": "Special transformers",
          "key": {
            "Number": 2
          }
        },
        "Name": "special_yd11"
      }
    ],
    "source": [
      {
        "id": 99,
        "node": 23,
        "status": 1,
        "u_ref": 1.0,
        "sk": 1000000000000000.0,
        "rx_ratio": 0.1,
        "z01_ratio": 3.0,
        "id_reference": {
          "table": "Sources",
          "key": {
            "Node.Number": 24,
            "Subnumber": 1
          }
        },
        "Name": "source1"
      }
    ],
    "sym_gen": [
      {
        "id": 100,
        "node": 0,
        "status": 1,
        "type": 0,
        "p_specified": 500000.0,
        "q_specified": 164342.05258943158,
        "id_reference": {
          "table": "Synchronous generators",
          "key": {
            "Node.Number": 1,
            "Subnumber": 3
          }
        },
        "Name": "syngen1"
      },
      {
        "id": 101,
        "node": 37,
        "status": 1,
        "type": 0,
        "p_specified": 1000000.0,
        "q_specified": 0.0,
        "id_reference": {
          "table": "Synchronous generators",
          "key": {
            "Node.Number": 38,
            "Subnumber": 2
          }
        }
      },
      {
        "id": 102,
        "node": 46,
        "status": 1,
        "type": 0,
        "p_specified": 500000.0,
        "q_specified": 0.0,
        "id_reference": {
          "table": "Synchronous generators",
          "key": {
            "Node.Number": 47,
            "Subnumber": 2
          }
        }
      },
      {
        "id": 103,
        "node": 18,
        "status": 1,
        "type": 0,
        "p_specified": 800000.0,
        "q_specified": 0.0,
        "id_reference": {
          "table": "Wind turbines",
          "key": {
            "Node.Number": 19,
            "Subnumber": 2
          }
        },
        "Name": "wind1"
      },
      {
        "id": 128,
        "node": 12,
        "status": 1,
        "type": 0,
        "p_specified": 500000.0,
        "q_specified": 0.0,
        "id_reference": {
          "table": "Pvs",
          "key": {
            "Node.Number": 13,
            "Subnumber": 2
          }
        },
        "Name": "pv1"
      }
    ],
    "sym_load": [
      {
        "id": 104,
        "node": 26,
        "status": 1,
        "type": 0,
        "p_specified": 1500000.0,
        "q_specified": 1000000.0,
        "id_reference": {
          "table": "Loads",
          "key": {
            "Node.Number": 26,
            "Subnumber": 1
          }
        },
        "Name": "Load1"
      },
      {
        "id": 105,
        "node": 27,
        "status": 1,
        "type": 0,
        "p_specified": 800000.0,
        "q_specified": 0.0,
        "id_reference": {
          "table": "Loads",
          "key": {
            "Node.Number": 27,
            "Subnumber": 1
          }
        }
      },
      {
        "id": 106,
        "node": 28,
        "status": 1,
        "type": 0,
        "p_specified": 800000.0,
        "q_specified": 0.0,
        "id_reference": {
          "table": "Loads",
          "key": {
            "Node.Number": 28,
            "Subnumber": 1
          }
        }
      },
      {
        "id": 107,
        "node": 29,
        "status": 1,
        "type": 0,
        "p_specified": 100000.0,
        "q_specified": 0.0,
        "id_reference": {
          "table": "Loads",
          "key": {
            "Node.Number": 29,
            "Subnumber": 1
          }
        }
      },
      {
        "id": 108,
        "node": 30,
        "status": 1,
        "type": 0,
        "p_specified": 950000.0,
        "q_specified": 0.0,
        "id_reference": {
          "table": "Loads",
          "key": {
            "Node.Number": 31,
            "Subnumber": 1
          }
        }
      },
      {
        "id": 109,
        "node": 31,
        "status": 1,
        "type": 0,
        "p_specified": 950000.0,
        "q_specified": 0.0,
        "id_reference": {
          "table": "Loads",
          "key": {
            "Node.Number": 32,
            "Subnumber": 1
          }
        }
      },
      {
        "id": 110,
        "node": 32,
        "status": 1,
        "type": 0,
        "p_specified": 950000.0,
        "q_specified": 0.0,
        "id_reference": {
          "table": "Loads",
          "key": {
            "Node.Number": 33,
            "Subnumber": 1
          }
        }
      },
      {
        "id": 111,
        "node": 33,
        "status": 1,
        "type": 0,
        "p_specified": 1500000.0,
        "q_specified": 0.0,
        "id_reference": {
          "table": "Loads",
          "key": {
            "Node.Number": 34,
            "Subnumber": 1
          }
        }
      },
      {
        "id": 112,
        "node": 34,
        "status": 1,
        "type": 0,
        "p_specified": 950000.0,
        "q_specified": 0.0,
        "id_reference": {
          "table": "Loads",
          "key": {
            "Node.Number": 35,
            "Subnumber": 1
          }
        }
      },
      {
        "id": 113,
        "node": 35,
        "status": 1,
        "type": 0,
        "p_specified": 950000.0,
        "q_specified": 0.0,
        "id_reference": {
          "table": "Loads",
          "key": {
            "Node.Number": 36,
            "Subnumber": 1
          }
        }
      },
      {
        "id": 114,
        "node": 36,
        "status": 1,
        "type": 0,
        "p_specified": 100000.0,
        "q_specified": 0.0,
        "id_reference": {
          "table": "Loads",
          "key": {
            "Node.Number": 37,
            "Subnumber": 1
          }
        }
      },
      {
        "id": 115,
        "node": 37,
        "status": 1,
        "type": 0,
        "p_specified": 2450000.0,
        "q_specified": 0.0,
        "id_reference": {
          "table": "Loads",
          "key": {
            "Node.Number": 38,
            "Subnumber": 1
          }
        }
      },
      {
        "id": 116,
        "node": 38,
        "status": 1,
        "type": 0,
        "p_specified": 100000.0,
        "q_specified": 0.0,
        "id_reference": {
          "table": "Loads",
          "key": {
            "Node.Number": 39,
            "Subnumber": 1
          }
        }
      },
      {
        "id": 117,
        "node": 39,
        "status": 1,
        "type": 0,
        "p_specified": 950000.0,
        "q_specified": 0.0,
        "id_reference": {
          "table": "Loads",
          "key": {
            "Node.Number": 40,
            "Subnumber": 1
          }
        }
      },
      {
        "id": 118,
        "node": 40,
        "status": 1,
        "type": 0,
        "p_specified": 800000.0,
        "q_specified": 0.0,
        "id_reference": {
          "table": "Loads",
          "key": {
            "Node.Number": 41,
            "Subnumber": 1
          }
        }
      },
      {
        "id": 119,
        "node": 41,
        "status": 1,
        "type": 0,
        "p_specified": 100000.0,
        "q_specified": 0.0,
        "id_reference": {
          "table": "Loads",
          "key": {
            "Node.Number": 42,
            "Subnumber": 1
          }
        }
      },
      {
        "id": 120,
        "node": 42,
        "status": 1,
        "type": 0,
        "p_specified": 100000.0,
        "q_specified": 0.0,
        "id_reference": {
          "table": "Loads",
          "key": {
            "Node.Number": 43,
            "Subnumber": 1
          }
        }
      },
      {
        "id": 121,
        "node": 43,
        "status": 1,
        "type": 0,
        "p_specified": 100000.0,
        "q_specified": 0.0,
        "id_reference": {
          "table": "Loads",
          "key": {
            "Node.Number": 44,
            "Subnumber": 1
          }
        }
      },
      {
        "id": 122,
        "node": 44,
        "status": 1,
        "type": 0,
        "p_specified": 100000.0,
        "q_specified": 0.0,
        "id_reference": {
          "table": "Loads",
          "key": {
            "Node.Number": 45,
            "Subnumber": 1
          }
        }
      },
      {
        "id": 123,
        "node": 45,
        "status": 1,
        "type": 0,
        "p_specified": 100000.0,
        "q_specified": 0.0,
        "id_reference": {
          "table": "Loads",
          "key": {
            "Node.Number": 46,
            "Subnumber": 1
          }
        }
      },
      {
        "id": 124,
        "node": 46,
        "status": 1,
        "type": 0,
        "p_specified": 2450000.0,
        "q_specified": 0.0,
        "id_reference": {
          "table": "Loads",
          "key": {
            "Node.Number": 47,
            "Subnumber": 1
          }
        }
      }
    ],
    "shunt": [
      {
        "id": 125,
        "node": 0,
        "status": 1,
        "g1": 0.0,
        "b1": 0.0,
        "g0": 0.0,
        "b0": -0.14285714285714285,
        "id_reference": {
          "table": "Zigzag transformers",
          "key": {
            "Node.Number": 1,
            "Subnumber": 1
          }
        },
        "Name": "zz1"
      },
      {
        "id": 126,
        "node": 0,
        "status": 1,
        "g1": 0.0,
        "b1": 0.018140589569160998,
        "g0": 0.0,
        "b0": 0.0,
        "id_reference": {
          "table": "Capacitors",
          "key": {
            "Node.Number": 1,
            "Subnumber": 2
          }
        },
        "Name": "shunt1"
      },
      {
        "id": 127,
        "node": 20,
        "status": 1,
        "g1": 0.0,
        "b1": -0.00272108843537415,
        "g0": 0.0,
        "b0": 0.0,
        "id_reference": {
          "table": "Reactors",
          "key": {
            "Node.Number": 21,
            "Subnumber": 2
          }
        },
        "Name": "rcoil1"
      }
    ]
  }
}
